# generated using pymatgen
data_Al2(SO4)3
_symmetry_space_group_name_H-M   R-3
_cell_length_a   8.02130249
_cell_length_b   8.02130249
_cell_length_c   21.36054794
_cell_angle_alpha   90.00000000
_cell_angle_beta   90.00000000
_cell_angle_gamma   120.00000000
_symmetry_Int_Tables_number   148
_chemical_formula_structural   Al2(SO4)3
_chemical_formula_sum   'Al12 S18 O72'
_cell_volume   1190.23525141
_cell_formula_units_Z   6
loop_
 _symmetry_equiv_pos_site_id
 _symmetry_equiv_pos_as_xyz
  1  'x, y, z'
  2  '-x, -y, -z'
  3  '-y, x-y, z'
  4  'y, -x+y, -z'
  5  '-x+y, -x, z'
  6  'x-y, x, -z'
  7  'x+2/3, y+1/3, z+1/3'
  8  '-x+2/3, -y+1/3, -z+1/3'
  9  '-y+2/3, x-y+1/3, z+1/3'
  10  'y+2/3, -x+y+1/3, -z+1/3'
  11  '-x+y+2/3, -x+1/3, z+1/3'
  12  'x-y+2/3, x+1/3, -z+1/3'
  13  'x+1/3, y+2/3, z+2/3'
  14  '-x+1/3, -y+2/3, -z+2/3'
  15  '-y+1/3, x-y+2/3, z+2/3'
  16  'y+1/3, -x+y+2/3, -z+2/3'
  17  '-x+y+1/3, -x+2/3, z+2/3'
  18  'x-y+1/3, x+2/3, -z+2/3'
loop_
 _atom_type_symbol
 _atom_type_oxidation_number
  Al3+  3.0
  S6+  6.0
  O2-  -2.0
loop_
 _atom_site_type_symbol
 _atom_site_label
 _atom_site_symmetry_multiplicity
 _atom_site_fract_x
 _atom_site_fract_y
 _atom_site_fract_z
 _atom_site_occupancy
  Al3+  Al0  6  0.00000000  0.00000000  0.14338305  1
  Al3+  Al1  6  0.00000000  0.00000000  0.35191155  1
  S6+  S2  18  0.00208519  0.71322011  0.74947110  1
  O2-  O3  18  0.01251646  0.19938028  0.19234525  1
  O2-  O4  18  0.02152201  0.82654064  0.09036359  1
  O2-  O5  18  0.07296495  0.85496545  0.69850160  1
  O2-  O6  18  0.07389415  0.85600111  0.40206669  1
