# generated using pymatgen
data_BaAl2O4
_symmetry_space_group_name_H-M   P6_3
_cell_length_a   10.48041056
_cell_length_b   10.48041056
_cell_length_c   8.80613536
_cell_angle_alpha   90.00000000
_cell_angle_beta   90.00000000
_cell_angle_gamma   120.00000000
_symmetry_Int_Tables_number   173
_chemical_formula_structural   BaAl2O4
_chemical_formula_sum   'Ba8 Al16 O32'
_cell_volume   837.66926492
_cell_formula_units_Z   8
loop_
 _symmetry_equiv_pos_site_id
 _symmetry_equiv_pos_as_xyz
  1  'x, y, z'
  2  'x-y, x, z+1/2'
  3  '-y, x-y, z'
  4  '-x, -y, z+1/2'
  5  '-x+y, -x, z'
  6  'y, -x+y, z+1/2'
loop_
 _atom_type_symbol
 _atom_type_oxidation_number
  Ba2+  2.0
  Al3+  3.0
  O2-  -2.0
loop_
 _atom_site_type_symbol
 _atom_site_label
 _atom_site_symmetry_multiplicity
 _atom_site_fract_x
 _atom_site_fract_y
 _atom_site_fract_z
 _atom_site_occupancy
  Ba2+  Ba0  6  0.00727493  0.50056981  0.75852495  1
  Ba2+  Ba1  2  0.00000000  0.00000000  0.24511863  1
  Al3+  Al2  6  0.15407017  0.32814225  0.45080245  1
  Al3+  Al3  6  0.15552636  0.33118595  0.06405660  1
  Al3+  Al4  2  0.33333333  0.66666667  0.54808133  1
  Al3+  Al5  2  0.33333333  0.66666667  0.94814862  1
  O2-  O6  6  0.00054689  0.68688527  0.04506604  1
  O2-  O7  6  0.00301459  0.18131947  0.98077797  1
  O2-  O8  6  0.11314671  0.32154163  0.25739227  1
  O2-  O9  6  0.18035414  0.50089274  0.00302283  1
  O2-  O10  6  0.18300077  0.68576422  0.49086980  1
  O2-  O11  2  0.33333333  0.66666667  0.74805754  1
