# generated using pymatgen
data_BaSO4
_symmetry_space_group_name_H-M   Pnma
_cell_length_a   8.91393949
_cell_length_b   5.46903188
_cell_length_c   7.18825422
_cell_angle_alpha   90.00000000
_cell_angle_beta   90.00000000
_cell_angle_gamma   90.00000000
_symmetry_Int_Tables_number   62
_chemical_formula_structural   BaSO4
_chemical_formula_sum   'Ba4 S4 O16'
_cell_volume   350.43184453
_cell_formula_units_Z   4
loop_
 _symmetry_equiv_pos_site_id
 _symmetry_equiv_pos_as_xyz
  1  'x, y, z'
  2  '-x, -y, -z'
  3  '-x+1/2, -y, z+1/2'
  4  'x+1/2, y, -z+1/2'
  5  'x+1/2, -y+1/2, -z+1/2'
  6  '-x+1/2, y+1/2, z+1/2'
  7  '-x, y+1/2, -z'
  8  'x, -y+1/2, z'
loop_
 _atom_type_symbol
 _atom_type_oxidation_number
  Ba2+  2.0
  S6+  6.0
  O2-  -2.0
loop_
 _atom_site_type_symbol
 _atom_site_label
 _atom_site_symmetry_multiplicity
 _atom_site_fract_x
 _atom_site_fract_y
 _atom_site_fract_z
 _atom_site_occupancy
  Ba2+  Ba0  4  0.18510564  0.25000000  0.65676149  1
  S6+  S1  4  0.06192277  0.25000000  0.19071507  1
  O2-  O2  8  0.08014464  0.03023403  0.31068088  1
  O2-  O3  4  0.08837636  0.75000000  0.89128857  1
  O2-  O4  4  0.18154347  0.25000000  0.04902758  1
