# generated using pymatgen
data_Ga2O3
_symmetry_space_group_name_H-M   C2/m
_cell_length_a   12.28047342
_cell_length_b   3.04756735
_cell_length_c   5.81741012
_cell_angle_alpha   90.00000000
_cell_angle_beta   103.76434361
_cell_angle_gamma   90.00000000
_symmetry_Int_Tables_number   12
_chemical_formula_structural   Ga2O3
_chemical_formula_sum   'Ga8 O12'
_cell_volume   211.46752587
_cell_formula_units_Z   4
loop_
 _symmetry_equiv_pos_site_id
 _symmetry_equiv_pos_as_xyz
  1  'x, y, z'
  2  '-x, -y, -z'
  3  '-x, y, -z'
  4  'x, -y, z'
  5  'x+1/2, y+1/2, z'
  6  '-x+1/2, -y+1/2, -z'
  7  '-x+1/2, y+1/2, -z'
  8  'x+1/2, -y+1/2, z'
loop_
 _atom_type_symbol
 _atom_type_oxidation_number
  Ga3+  3.0
  O2-  -2.0
loop_
 _atom_site_type_symbol
 _atom_site_label
 _atom_site_symmetry_multiplicity
 _atom_site_fract_x
 _atom_site_fract_y
 _atom_site_fract_z
 _atom_site_occupancy
  Ga3+  Ga0  4  0.09047440  0.00000000  0.79478600  1
  Ga3+  Ga1  4  0.15883830  0.50000000  0.31473034  1
  O2-  O2  4  0.00353087  0.50000000  0.74333591  1
  O2-  O3  4  0.16450498  0.00000000  0.10915408  1
  O2-  O4  4  0.17337106  0.00000000  0.56323016  1
